# generated using pymatgen
data_CuH7C11NO6
_symmetry_space_group_name_H-M   C2/c
_cell_length_a   16.36400000
_cell_length_b   11.00300000
_cell_length_c   13.62000000
_cell_angle_alpha   90.00000000
_cell_angle_beta   99.69400000
_cell_angle_gamma   90.00000000
_symmetry_Int_Tables_number   15
_chemical_formula_structural   CuH7C11NO6
_chemical_formula_sum   'Cu8 H56 C88 N8 O48'
_cell_volume   2417.30665579
_cell_formula_units_Z   8
loop_
 _symmetry_equiv_pos_site_id
 _symmetry_equiv_pos_as_xyz
  1  'x, y, z'
  2  '-x, -y, -z'
  3  '-x, y, -z+1/2'
  4  'x, -y, z+1/2'
  5  'x+1/2, y+1/2, z'
  6  '-x+1/2, -y+1/2, -z'
  7  '-x+1/2, y+1/2, -z+1/2'
  8  'x+1/2, -y+1/2, z+1/2'
loop_
 _atom_site_type_symbol
 _atom_site_label
 _atom_site_symmetry_multiplicity
 _atom_site_fract_x
 _atom_site_fract_y
 _atom_site_fract_z
 _atom_site_occupancy
  Cu  Cu0  8  0.17178855  0.25015757  0.99850782  1
  H  H1  8  0.02969057  0.08910940  0.05842854  1
  H  H2  8  0.02972692  0.42637548  0.92401534  1
  H  H3  8  0.12220111  0.09180397  0.44897424  1
  H  H4  8  0.12286795  0.45018175  0.58385213  1
  H  H5  8  0.15166633  0.00701157  0.72804790  1
  H  H6  8  0.16122801  0.45291579  0.27182180  1
  H  H7  8  0.24745794  0.13095440  0.44017892  1
  C  C8  8  0.00652531  0.35593708  0.54700685  1
  C  C9  8  0.00674003  0.16688514  0.47374052  1
  C  C10  8  0.09174427  0.36776499  0.55265642  1
  C  C11  8  0.09217392  0.16976203  0.47712007  1
  C  C12  8  0.13659994  0.27338295  0.51653726  1
  C  C13  8  0.21414678  0.04184115  0.75227774  1
  C  C14  8  0.22393965  0.48619061  0.29666942  1
  C  C15  8  0.22546643  0.28820366  0.52059246  1
  C  C16  8  0.22799299  0.11841718  0.84271895  1
  C  C17  8  0.23639066  0.42966809  0.88226074  1
  C  C18  4  0.00000000  0.15191111  0.75000000  1
  C  C19  4  0.00000000  0.32974936  0.25000000  1
  N  N20  8  0.03590987  0.25810837  0.99262448  1
  O  O21  8  0.16290403  0.14568511  0.87830540  1
  O  O22  8  0.17042386  0.39509076  0.91280168  1
  O  O23  8  0.18968805  0.10362620  0.08303688  1
  O  O24  8  0.19766589  0.35094953  0.12180709  1
  O  O25  4  0.00000000  0.04480290  0.75000000  1
  O  O26  4  0.00000000  0.22316297  0.25000000  1
  O  O27  4  0.00000000  0.25851826  0.75000000  1
  O  O28  4  0.00000000  0.43685671  0.25000000  1
