# generated using pymatgen
data_CuH7C10NO4
_symmetry_space_group_name_H-M   C2/c
_cell_length_a   16.32136000
_cell_length_b   11.24100000
_cell_length_c   13.42200000
_cell_angle_alpha   90.00000000
_cell_angle_beta   103.48089600
_cell_angle_gamma   90.00000000
_symmetry_Int_Tables_number   15
_chemical_formula_structural   CuH7C10NO4
_chemical_formula_sum   'Cu8 H56 C80 N8 O32'
_cell_volume   2394.66508149
_cell_formula_units_Z   8
loop_
 _symmetry_equiv_pos_site_id
 _symmetry_equiv_pos_as_xyz
  1  'x, y, z'
  2  '-x, -y, -z'
  3  '-x, y, -z+1/2'
  4  'x, -y, z+1/2'
  5  'x+1/2, y+1/2, z'
  6  '-x+1/2, -y+1/2, -z'
  7  '-x+1/2, y+1/2, -z+1/2'
  8  'x+1/2, -y+1/2, z+1/2'
loop_
 _atom_site_type_symbol
 _atom_site_label
 _atom_site_symmetry_multiplicity
 _atom_site_fract_x
 _atom_site_fract_y
 _atom_site_fract_z
 _atom_site_occupancy
  Cu  Cu0  8  0.17110130  0.25051350  0.99185367  1
  H  H1  8  0.02178842  0.42150796  0.90786084  1
  H  H2  8  0.03412190  0.09638947  0.05506274  1
  H  H3  8  0.11737091  0.10040542  0.44474939  1
  H  H4  8  0.13043190  0.44595983  0.59301890  1
  H  H5  8  0.14873916  0.01175672  0.71615711  1
  H  H6  8  0.16142443  0.44809335  0.26862182  1
  H  H7  8  0.24272421  0.13221911  0.43995943  1
  C  C8  8  0.00508106  0.17175144  0.47806972  1
  C  C9  8  0.01182281  0.35329478  0.55958994  1
  C  C10  8  0.08999213  0.17527051  0.47715784  1
  C  C11  8  0.09686496  0.36569911  0.56109833  1
  C  C12  8  0.13809614  0.27507829  0.51920174  1
  C  C13  8  0.21212572  0.04629291  0.74565308  1
  C  C14  8  0.22470569  0.48309137  0.29791564  1
  C  C15  8  0.22535187  0.12344037  0.83734604  1
  C  C16  8  0.22704820  0.28835034  0.52106593  1
  C  C17  8  0.23610868  0.42998500  0.88260971  1
  N  N18  8  0.03397262  0.25863253  0.98169154  1
  O  O19  8  0.15895668  0.15076740  0.86718036  1
  O  O20  8  0.16851013  0.39415379  0.90587176  1
  O  O21  8  0.18913644  0.10452154  0.07632133  1
  O  O22  8  0.19909140  0.34655666  0.12019134  1
